37
Energy =
Zn    0.0000000	   0.0000000    0.0000000
C    -4.2483233   -0.6758215    0.0000000 
C    -2.8502107   -1.0837559    0.0000000 
N    -2.0317516    0.0000000    0.0000000 
C    -2.8502107    1.0837559    0.0000000 
C    -4.2483233    0.6758215    0.0000000 
C    -2.4339878   -2.4161284    0.0000000 
C    -1.1267067   -2.8874870    0.0000000 
N     0.0000000   -2.1122829    0.0000000 
C     1.1267067   -2.8874870    0.0000000 
C     0.6838234   -4.2481800    0.0000000 
C    -0.6838234   -4.2481800    0.0000000 
C     2.4339878   -2.4161284    0.0000000 
C     2.8502107   -1.0837559    0.0000000 
N     2.0317516    0.0000000    0.0000000 
C     2.8502107    1.0837559    0.0000000 
C     4.2483233    0.6758215    0.0000000 
C     4.2483233   -0.6758215    0.0000000 
C     2.4339878    2.4161284    0.0000000 
C     1.1267067    2.8874870    0.0000000 
C     0.6838234    4.2481800    0.0000000 
C    -0.6838234    4.2481800    0.0000000 
C    -1.1267067    2.8874870    0.0000000 
N     0.0000000    2.1122829    0.0000000 
C    -2.4339878    2.4161284    0.0000000 
H     5.0955988    1.3447841    0.0000000 
H     5.0955988   -1.3447841    0.0000000 
H     1.3417341   -5.1025345    0.0000000 
H    -1.3417341   -5.1025345    0.0000000 
H    -5.0955988   -1.3447841    0.0000000 
H    -5.0955988    1.3447841    0.0000000 
H    -1.3417341    5.1025345    0.0000000 
H     1.3417341    5.1025345    0.0000000 
H     3.2092232    3.1722148    0.0000000 
H     3.2092232   -3.1722148    0.0000000 
H    -3.2092232   -3.1722148    0.0000000 
H    -3.2092232    3.1722148    0.0000000 
