6
charge=0 energy=-7.52126031943
   C 1.361705677241826 -0.000000005071190 0.000000000000000
   C -0.062164432926296 -0.000000005482477 -0.000000000000000
   N -1.174687132484104 0.000000000979781 0.000000000000000
   H 1.754691429737288 1.007476936493843 -0.000000000000000
   H 1.754691425621449 -0.503738463444854 0.872500634738262
   H 1.754691425621449 -0.503738463444854 -0.872500634738263
