12
charge=0 energy=-13.6301342887
   C 0.032446585435114 0.056204460082400 -0.000000000000000
   C 1.357504035774759 0.056224200229582 0.000000000000000
   C 2.020081191121229 1.203745551570487 -0.000000000000000
   C 1.357568003842682 2.351311272635396 0.000000000000000
   C 0.032475119879397 2.351361580159408 -0.000000000000000
   C -0.630056620442039 1.203780936946398 0.000000000000000
   H -0.525608707248690 -0.910390442262284 -0.000000000000000
   H 1.915627704320049 -0.910384565475738 -0.000000000000000
   H 3.136230233980338 1.203799353854567 0.000000000000000
   H 1.915597156207270 3.317953683932142 -0.000000000000000
   H -0.525628825320723 3.317936854346033 -0.000000000000000
   H -1.746235951669314 1.203777241806522 0.000000000000000
