17
charge=0 energy=-25.7995997704
   C 1.987582797710457 -1.147995587137445 -0.733018795858103
   C 1.396859083274936 0.119777979569847 -0.246190520382752
   N 0.105695863435123 0.281846728476596 -0.449925625416632
   C -0.551392341290845 1.415286338905194 -0.057387587066471
   C -2.002015006040572 1.418049275491592 -0.322878052281757
   O -2.702673634766307 2.336293452212440 -0.087286452083429
   O -2.482658495801575 0.317952859847582 -0.846674205510602
   N 3.124967475258982 -1.480782766282557 -0.018932719559161
   O 2.056262514075782 0.959055802898492 0.265839382063613
   H 2.181637032087385 -1.035343110075577 -1.798949721990240
   H 1.245118929408108 -1.935933082001826 -0.681798707751342
   H -0.432759036019321 -0.474309931087621 -0.820200813516222
   H -0.398890477804431 1.613699798109975 1.001306708618720
   H -0.120526529110464 2.293917980303778 -0.530339547135938
   H -3.415672764045210 0.486706090253028 -0.949652842705005
   H 3.789053983642433 -1.938696321625324 -0.630060926457113
   H 3.579665159242071 -0.609294069785346 0.224169670423409
