8
charge=0 energy=-6.21018162777
   C 1.505986760958985 0.000000000000024 -0.000000080980920
   C 0.024254446192524 -0.000000000000029 -0.000000079439931
   H 1.914053365236143 -0.000000000000001 0.999997539387958
   H 1.914053339914076 -0.866023198322845 -0.499998729262373
   H 1.914053339914069 0.866023198322825 -0.499998729262363
   H -0.384134535364408 0.000000000000001 0.999997236954260
   H -0.384134510429204 0.866022937451099 -0.499998578697938
   H -0.384134510429194 -0.866022937451074 -0.499998578697926
