6
charge=0 energy=-6.82065428913
   C 1.367244195299184 -0.018539185363015 -0.000000000000000
   O 0.020402345112271 0.014345873263044 0.000000000000000
   H 1.742974955317163 0.998057785594328 0.000000000000000
   H 1.797791984108718 -0.514925510185394 0.874725167481419
   H 1.797791984108719 -0.514925510185395 -0.874725167481418
   H -0.282885463943053 -0.887963453126570 -0.000000000000000
