14
charge=0 energy=-22.3077620213
   C 0.030820490836756 0.053376983291347 0.000013854395418
   C 1.356332617162666 0.060450627371956 0.000009218733818
   C 2.019654817886143 1.207094768139566 0.000004007540066
   C 1.359864711815818 2.355197184285404 0.000002161619561
   C 0.035682688598373 2.352688225208214 0.000004006977759
   C -0.625702079525299 1.204915411850075 0.000009218301912
   N -0.656787044026963 -1.137531878013519 -0.000003680385156
   H 1.887796958505523 -0.868700613844147 0.000005725779893
   H 3.090629327842746 1.203176818611136 -0.000001260160125
   H 1.895137327896591 3.282786792962528 -0.000002705922339
   H -0.503627523825243 3.277973335820769 -0.000001260524790
   H -1.696117822745823 1.200349071676052 0.000005726929671
   O -0.941846992623672 -1.631243486294176 -1.055127101927352
   O -0.941872762198532 -1.631288126179110 1.055082245843556
