6
 energy=-1.323303595419407E+02
 C         1.381405397456      0.000000000000      0.000000000000
 C        -0.061708810040      0.000000000000      0.000000000000
 N        -1.201048083478      0.000000000000      0.000000000000
 H         1.756655180011      1.023079788508      0.000000166030
 H         1.756655180011     -0.511540038041      0.886013003932
 H         1.756655180011     -0.511539750468     -0.886013169962
