8
 energy=-2.284969187649011E+02
 C         1.389591020546     -0.147950453675     -0.371703221784
 C        -0.051011494704     -0.001884604353     -0.057257585239
 O        -0.611762291709      1.014255688749      0.223387872214
 O        -0.693860542614     -1.167245754081     -0.119922311278
 H         1.851254053534     -0.845501163455      0.328069230737
 H         1.508535450302     -0.564998939590     -1.372359978624
 H         1.879462818445      0.820301708167     -0.310713429488
 H        -1.622759013801     -1.005876481761      0.093919423462
