9
 energy=-1.545867282525791E+02
 C         1.411430072563      0.005005728528      0.000000000002
 O         0.026077214775      0.036896503736      0.000000000002
 C        -0.465766204682      1.332382823292      0.000000000002
 H         1.723484110101     -1.038898438179      0.000000000002
 H         1.823502214367      0.498901825040      0.890638923779
 H         1.823502214367      0.498901825040     -0.890638923776
 H        -1.553986400918      1.278622414990      0.000000000002
 H        -0.137456610290      1.885503658760     -0.890642242814
 H        -0.137456610290      1.885503658760      0.890642242817
