10
 energy=-1.347395189603873E+02
 C         1.459373653292     -0.004252461174      0.020971565184
 N         0.027537518274      0.038946762459     -0.008467258514
 H         1.805976649276     -1.038956194078      0.035441447254
 H         1.900100609933      0.522656276664      0.882935919558
 H         1.858434267625      0.458605982541     -0.885658687752
 H        -0.367066726530     -0.519106780957      0.735545900183
 C        -0.490467036158      1.374496148083      0.020971745456
 H        -1.581529438721      1.356377605727      0.035441760446
 H        -0.187099125767      1.905019700639     -0.885658498632
 H        -0.140600366241      1.965652952255      0.882936108231
