14
 energy=-4.354761220448771E+02
 C         0.031139032090      0.053936641221      0.000000000000
 C         1.400379911696      0.017445289438      0.000000000000
 C         2.080710072424      1.213637806427      0.000000000000
 C         1.388301004111      2.404609319366      0.000000000000
 C         0.010684886774      2.408767828949      0.000000000000
 C        -0.685083489191      1.221488579614      0.000000000000
 N        -0.696843570927     -1.206965717701      0.000000000000
 H         1.925771019477     -0.931910684058      0.000000000000
 H         3.165708050795      1.213463388577      0.000000000000
 H         1.930898855524      3.344416025625      0.000000000000
 H        -0.531964856892      3.348316600587      0.000000000000
 H        -1.769945437404      1.201812961985      0.000000000000
 O        -0.969877739193     -1.679874019944     -1.066368932389
 O        -0.969877739193     -1.679874019944      1.066368932389
